Version 4
SHEET 1 2404 1168
WIRE 1568 -400 1552 -400
WIRE 1600 -400 1568 -400
WIRE 1472 -304 1472 -400
WIRE 1488 -304 1472 -304
WIRE 1568 -304 1568 -400
WIRE 1568 -304 1536 -304
WIRE 32 -256 -128 -256
WIRE 736 -256 32 -256
WIRE 864 -256 736 -256
WIRE 944 -256 864 -256
WIRE 1104 -256 1008 -256
WIRE 1264 -256 1168 -256
WIRE 1392 -256 1264 -256
WIRE 1472 -256 1392 -256
WIRE 1600 -256 1552 -256
WIRE -128 -240 -128 -256
WIRE 944 -240 944 -256
WIRE 1008 -240 1008 -256
WIRE 1264 -240 1264 -256
WIRE 1392 -240 1392 -256
WIRE 1600 -240 1600 -256
WIRE 736 -224 736 -256
WIRE 160 -208 96 -208
WIRE 224 -208 160 -208
WIRE 336 -208 288 -208
WIRE 480 -208 336 -208
WIRE 560 -208 480 -208
WIRE 96 -192 96 -208
WIRE 560 -192 560 -208
WIRE -128 -144 -128 -160
WIRE 336 -144 336 -208
WIRE 864 -144 864 -256
WIRE 1008 -144 1008 -160
WIRE 1264 -144 1264 -176
WIRE 1600 -144 1600 -160
WIRE 96 -112 96 -128
WIRE 560 -96 560 -112
WIRE 32 -80 32 -256
WIRE 160 -80 160 -208
WIRE 736 -80 736 -160
WIRE 480 -32 480 -208
WIRE -64 0 -176 0
WIRE 336 0 336 -80
WIRE 336 0 256 0
WIRE 736 16 736 -16
WIRE 864 16 864 -80
WIRE 864 16 736 16
WIRE 944 16 944 -160
WIRE 944 16 864 16
WIRE 1376 32 816 32
WIRE 336 80 288 80
WIRE 480 80 480 48
WIRE 480 80 336 80
WIRE -176 96 -176 0
WIRE -64 96 -176 96
WIRE 288 96 288 80
WIRE 288 96 256 96
WIRE 336 96 336 80
WIRE 480 96 480 80
WIRE -176 112 -176 96
WIRE 1376 160 1376 32
WIRE 1376 160 1360 160
WIRE 944 176 944 16
WIRE 1152 176 944 176
WIRE -176 192 -176 176
WIRE -64 192 -176 192
WIRE 336 192 336 176
WIRE 336 192 256 192
WIRE 480 192 480 176
WIRE 1392 192 1360 192
WIRE -176 208 -176 192
WIRE 816 288 816 32
WIRE 816 288 256 288
WIRE 896 288 816 288
WIRE 1392 288 1392 192
WIRE 1392 288 1104 288
WIRE 1104 368 1104 288
WIRE 1104 368 928 368
WIRE -160 384 -176 384
WIRE -64 384 -96 384
WIRE 928 384 928 368
WIRE 928 384 256 384
WIRE 944 384 928 384
WIRE 944 400 944 384
WIRE 160 480 160 464
WIRE 944 496 944 480
WIRE 32 512 32 464
WIRE 32 608 32 592
FLAG 1008 -144 0
FLAG 1600 -144 0
FLAG -128 -256 IN
FLAG 1600 -256 OUT
FLAG 1264 -144 0
FLAG 560 -96 0
FLAG -128 -144 0
FLAG 96 -112 0
FLAG -176 208 0
FLAG -176 384 0
FLAG 32 608 0
FLAG 160 480 0
FLAG 480 192 0
FLAG 944 496 0
FLAG 1392 -160 0
FLAG 1600 -400 0
SYMBOL voltage -128 -256 R0
WINDOW 123 0 0 Left 2
WINDOW 39 0 0 Left 2
SYMATTR InstName Vin
SYMATTR Value PULSE(220 400 10m 1u 0 0 1)
SYMBOL ind2 928 -256 R0
WINDOW 0 -3 37 Right 2
WINDOW 3 -2 74 Right 2
SYMATTR InstName L1
SYMATTR Value 244.11µ
SYMATTR SpiceLine Rser=1.87
SYMATTR Type ind
SYMBOL ind2 1024 -144 R180
WINDOW 0 -4 72 Right 2
WINDOW 3 -3 34 Right 2
SYMATTR InstName L2
SYMATTR Value 3.55µ
SYMATTR SpiceLine Rser=42.6m Cpar=0.5p
SYMATTR Type ind
SYMBOL schottky 1104 -240 R270
WINDOW 0 32 32 VTop 2
WINDOW 3 0 32 VBottom 2
SYMATTR InstName D1
SYMATTR Value RBR10NS60A
SYMATTR Description Diode
SYMATTR Type diode
SYMBOL res 928 384 R0
SYMATTR InstName Rsense
SYMATTR Value 27.5m
SYMBOL res 1584 -256 R0
SYMATTR InstName Rload
SYMATTR Value 0.44
SYMBOL cap 320 -80 M180
WINDOW 123 24 6 Left 2
WINDOW 0 24 56 Left 2
WINDOW 3 47 32 Left 2
SYMATTR Value2 Rser=10K
SYMATTR InstName C3
SYMATTR Value 47p
SYMBOL res 320 80 R0
SYMATTR InstName R4
SYMATTR Value 500k
SYMBOL res 464 -48 R0
SYMATTR InstName R5
SYMATTR Value 92k
SYMBOL res 464 80 R0
SYMATTR InstName R6
SYMATTR Value 10k
SYMBOL ind2 544 -96 M180
WINDOW 0 43 76 Left 2
WINDOW 3 41 42 Left 2
SYMATTR InstName L3
SYMATTR Value 3.55µ
SYMATTR SpiceLine Rser=42.6m
SYMATTR Type ind
SYMBOL cap -192 112 R0
SYMATTR InstName C5
SYMATTR Value 4.7µ
SYMBOL cap 1248 -240 R0
SYMATTR SpiceLine Rser=3m
SYMATTR InstName C8
SYMATTR Value 470µ
SYMBOL cap -96 400 M270
WINDOW 39 -21 32 VBottom 2
WINDOW 0 32 32 VTop 2
WINDOW 3 0 32 VBottom 2
SYMATTR SpiceLine Rser=20K
SYMATTR InstName C9
SYMATTR Value 100n
SYMBOL res 16 496 R0
SYMATTR InstName R9
SYMATTR Value 61.9K
SYMBOL cap 80 -192 R0
SYMATTR InstName C1
SYMATTR Value 4.7µ
SYMBOL LT8316 96 192 R0
SYMATTR InstName U1
SYMBOL schottky 288 -192 M270
WINDOW 0 32 32 VTop 2
WINDOW 3 0 32 VBottom 2
SYMATTR InstName D2
SYMATTR Value RB058L150
SYMATTR Description Diode
SYMATTR Type diode
SYMBOL voltage 1456 -400 R270
WINDOW 0 32 56 VTop 2
WINDOW 3 -32 56 VBottom 2
WINDOW 123 0 0 Left 0
WINDOW 39 0 0 Left 0
SYMATTR InstName V1
SYMATTR Value PULSE(5 5 150m 1u 0 0 1)
SYMBOL res 1376 -256 R0
SYMATTR InstName R1
SYMATTR Value 1k
SYMBOL AutoGenerated\\IPD65R190C7_L0 1248 176 R0
SYMATTR InstName U3
SYMBOL sw 1568 -256 R90
SYMATTR InstName S1
SYMBOL diode 720 -16 M180
WINDOW 0 24 64 Left 2
WINDOW 3 24 0 Left 2
SYMATTR InstName D3
SYMATTR Value RFN1L7S
SYMBOL cap 848 -144 R0
WINDOW 123 26 65 Left 2
WINDOW 3 38 41 Left 2
SYMATTR Value2 Rser=100
SYMATTR Value 400p
SYMATTR InstName C2
SYMATTR SpiceLine Rser=100
SYMBOL zener 720 -224 R0
WINDOW 123 47 32 Left 2
SYMATTR Value2 N=2
SYMATTR InstName D4
SYMATTR Value 1N5378B
SYMATTR Description Diode
SYMATTR Type diode
TEXT 976 -256 Bottom 2 !K1 L1 L2 L3 0.99
TEXT 976 -296 Bottom 2 ;8:1:1
TEXT 184 592 Left 2 !.tran 0 250m 0 startup
TEXT 1328 352 Left 2 !.lib C:\\Users\\ahmet\\OneDrive\\Belgeler\\LTspiceXVII\\lib\\sub\\CoolMos2.lib
TEXT 1768 -296 Left 2 !.model SW SW()
