Version 4
SHEET 1 880 680
WIRE 96 112 0 112
WIRE 256 112 192 112
WIRE 352 112 256 112
WIRE 256 128 256 112
WIRE 352 176 352 112
WIRE 0 192 0 112
WIRE 176 224 176 160
WIRE 256 224 256 192
WIRE 256 224 176 224
WIRE 0 336 0 272
WIRE 176 336 176 304
WIRE 176 336 0 336
WIRE 352 336 352 256
WIRE 352 336 176 336
WIRE 176 352 176 336
FLAG 176 352 0
SYMBOL pmos 96 160 R270
SYMATTR InstName M1
SYMATTR Value IRF9640
SYMBOL res 160 208 R0
SYMATTR InstName R1
SYMATTR Value 100
SYMBOL zener 272 192 R180
WINDOW 0 24 64 Left 2
WINDOW 3 24 0 Left 2
SYMATTR InstName D1
SYMATTR Value BZX84C10L
SYMBOL voltage 0 176 R0
WINDOW 123 0 0 Left 0
WINDOW 39 0 0 Left 0
SYMATTR InstName V1
SYMATTR Value -400
SYMBOL res 336 160 R0
SYMATTR InstName R2
SYMATTR Value 1600
TEXT -34 376 Left 2 !.tran 0 0.5 0.4
