Version 4
SHEET 1 3076 1168
WIRE 32 -256 -352 -256
WIRE 656 -256 32 -256
WIRE 784 -256 656 -256
WIRE 944 -256 784 -256
WIRE 1152 -256 1008 -256
WIRE 944 -240 944 -256
WIRE 1008 -240 1008 -256
WIRE -352 -224 -352 -256
WIRE 656 -224 656 -256
WIRE -352 -208 -352 -224
WIRE 160 -208 96 -208
WIRE 224 -208 160 -208
WIRE 336 -208 288 -208
WIRE 480 -208 336 -208
WIRE 560 -208 480 -208
WIRE 96 -192 96 -208
WIRE 560 -192 560 -208
WIRE 1152 -160 1152 -256
WIRE 336 -144 336 -208
WIRE 784 -144 784 -256
WIRE 1008 -144 1008 -160
WIRE -352 -112 -352 -128
WIRE 96 -112 96 -128
WIRE 560 -96 560 -112
WIRE 32 -80 32 -256
WIRE 160 -80 160 -208
WIRE 656 -80 656 -160
WIRE 480 -32 480 -208
WIRE -64 0 -176 0
WIRE 336 0 336 -80
WIRE 336 0 256 0
WIRE 1072 0 1040 0
WIRE 1152 0 1152 -96
WIRE 1152 0 1136 0
WIRE 656 16 656 -16
WIRE 784 16 784 -80
WIRE 784 16 656 16
WIRE 832 16 784 16
WIRE 944 16 944 -160
WIRE 944 16 832 16
WIRE 832 32 832 16
WIRE 336 80 288 80
WIRE 480 80 480 48
WIRE 480 80 336 80
WIRE -176 96 -176 0
WIRE -64 96 -176 96
WIRE 288 96 288 80
WIRE 288 96 256 96
WIRE 336 96 336 80
WIRE 480 96 480 80
WIRE -176 112 -176 96
WIRE 1152 128 1152 0
WIRE 1152 128 1136 128
WIRE -176 192 -176 176
WIRE -64 192 -176 192
WIRE 336 192 336 176
WIRE 336 192 256 192
WIRE 480 192 480 176
WIRE -176 208 -176 192
WIRE 1152 208 1152 128
WIRE 1296 208 1200 208
WIRE 1200 224 1200 208
WIRE 816 288 816 240
WIRE 816 288 256 288
WIRE 1200 304 1200 272
WIRE 1296 304 1296 288
WIRE 1296 304 1200 304
WIRE 1056 336 1040 336
WIRE 1152 336 1152 288
WIRE 1152 336 1136 336
WIRE 1296 336 1296 304
WIRE -160 384 -176 384
WIRE -64 384 -96 384
WIRE 848 384 848 240
WIRE 848 384 256 384
WIRE 848 400 848 384
WIRE 160 480 160 464
WIRE 848 496 848 480
WIRE 32 512 32 464
WIRE 32 608 32 592
FLAG 1008 -144 0
FLAG 1040 336 0
FLAG -352 -224 IN
FLAG 1152 336 OUT
FLAG 1040 0 0
FLAG 560 -96 0
FLAG -352 -112 0
FLAG 96 -112 0
FLAG -176 208 0
FLAG -176 384 0
FLAG 32 608 0
FLAG 160 480 0
FLAG 480 192 0
FLAG 848 496 0
FLAG 1056 128 0
FLAG 1296 336 0
SYMBOL voltage -352 -224 R0
WINDOW 123 0 0 Left 2
WINDOW 39 0 0 Left 2
SYMATTR InstName Vin
SYMATTR Value PULSE(220 400 50m 1u 0 0 1)
SYMBOL ind2 928 -256 R0
WINDOW 0 -3 37 Right 2
WINDOW 3 -2 74 Right 2
SYMATTR InstName L1
SYMATTR Value 244.11µ
SYMATTR SpiceLine Rser=1.87
SYMATTR Type ind
SYMBOL ind2 1024 -144 R180
WINDOW 0 -4 72 Right 2
WINDOW 3 -3 34 Right 2
SYMATTR InstName L2
SYMATTR Value 3.55µ
SYMATTR SpiceLine Rser=42.6m Cpar=0.5p
SYMATTR Type ind
SYMBOL schottky 1136 -160 R0
SYMATTR InstName D1
SYMATTR Value RBR10NS60A
SYMATTR Description Diode
SYMATTR Type diode
SYMBOL res 832 384 R0
SYMATTR InstName Rsense
SYMATTR Value 27.6m
SYMBOL res 1152 320 R90
WINDOW 0 0 56 VBottom 2
WINDOW 3 32 56 VTop 2
SYMATTR InstName Rload
SYMATTR Value 0.6
SYMBOL cap 320 -80 M180
WINDOW 123 24 6 Left 2
WINDOW 0 24 56 Left 2
WINDOW 3 47 32 Left 2
SYMATTR Value2 Rser=10K
SYMATTR InstName C3
SYMATTR Value 47p
SYMBOL res 320 80 R0
SYMATTR InstName R4
SYMATTR Value 500k
SYMBOL res 464 -48 R0
SYMATTR InstName R5
SYMATTR Value 90k
SYMBOL res 464 80 R0
SYMATTR InstName R6
SYMATTR Value 10k
SYMBOL ind2 544 -96 M180
WINDOW 0 43 76 Left 2
WINDOW 3 41 42 Left 2
SYMATTR InstName L3
SYMATTR Value 3.55µ
SYMATTR SpiceLine Rser=42.6m
SYMATTR Type ind
SYMBOL cap -192 112 R0
SYMATTR InstName C5
SYMATTR Value 4.7µ
SYMBOL cap 1136 -16 R90
WINDOW 0 0 32 VBottom 2
WINDOW 3 32 32 VTop 2
SYMATTR SpiceLine Rser=3m
SYMATTR InstName C8
SYMATTR Value 470µ
SYMBOL cap -96 400 M270
WINDOW 39 -21 32 VBottom 2
WINDOW 0 32 32 VTop 2
WINDOW 3 0 32 VBottom 2
SYMATTR SpiceLine Rser=20K
SYMATTR InstName C9
SYMATTR Value 100n
SYMBOL res 16 496 R0
SYMATTR InstName R9
SYMATTR Value 61.9K
SYMBOL cap 80 -192 R0
SYMATTR InstName C1
SYMATTR Value 4.7µ
SYMBOL LT8316 96 192 R0
SYMATTR InstName U1
SYMBOL schottky 288 -192 M270
WINDOW 0 32 32 VTop 2
WINDOW 3 0 32 VBottom 2
SYMATTR InstName D2
SYMATTR Value RB058L150
SYMATTR Description Diode
SYMATTR Type diode
SYMBOL voltage 1296 192 R0
WINDOW 0 32 56 VTop 2
WINDOW 3 164 122 Bottom 2
WINDOW 123 0 0 Left 0
WINDOW 39 0 0 Left 0
SYMATTR InstName V1
SYMATTR Value PULSE(5 -5 10m 1u 0 0 1)
SYMBOL res 1152 112 R90
WINDOW 0 0 56 VBottom 2
WINDOW 3 32 56 VTop 2
SYMATTR InstName R1
SYMATTR Value 14.4
SYMBOL sw 1152 304 R180
SYMATTR InstName S1
SYMBOL diode 640 -16 M180
WINDOW 0 24 64 Left 2
WINDOW 3 24 0 Left 2
SYMATTR InstName D3
SYMATTR Value RFN1L7S
SYMBOL cap 768 -144 R0
WINDOW 123 26 65 Left 2
WINDOW 3 38 41 Left 2
SYMATTR Value2 Rser=100
SYMATTR Value 450p
SYMATTR InstName C2
SYMATTR SpiceLine Rser=66
SYMBOL zener 640 -224 R0
WINDOW 123 47 32 Left 2
SYMATTR Value2 N=2
SYMATTR InstName D4
SYMATTR Value 1N5378B
SYMATTR Description Diode
SYMATTR Type diode
SYMBOL AutoGenerated\\IPD65R190C7_NEW 832 128 M90
SYMATTR InstName U2
TEXT 976 -256 Bottom 2 !K1 L1 L2 L3 0.99
TEXT 976 -296 Bottom 2 ;8:1:1
TEXT 184 592 Left 2 !.tran 0 25m 0 startup
TEXT -264 -424 Left 2 !.lib C:\\Users\\Ali Belli\\Documents\\LTspiceXVII\\lib\\sub\\sub\\NEW.lib
TEXT 1200 432 Left 2 !.model SW SW()
